[root]
type=Root
children=system
eventq_index=0
full_system=true
sim_quantum=0
time_sync_enable=false
time_sync_period=100000000000
time_sync_spin_threshold=100000000

[system]
type=ArmSystem
children=bridge clk_domain cpu0 cpu1 cpu_clk_domain dvfs_handler iobus iocache l2c membus pci_ide physmem realview release terminal toL2Bus vncserver voltage_domain workload
auto_reset_addr=true
auto_unlink_shared_backstore=false
cache_line_size=64
eventq_index=0
exit_on_work_items=false
gic_cpu_addr=0
have_large_asid_64=false
highest_el_is_64=true
init_param=0
m5ops_base=268500992
mem_mode=atomic
mem_ranges=2147483648:2415919104
memories=system.physmem system.realview.bootmem system.realview.flash0 system.realview.flash1 system.realview.non_trusted_sram system.realview.trusted_dram system.realview.trusted_sram system.realview.vram
mmap_using_noreserve=false
multi_proc=true
multi_thread=false
num_work_ids=16
phys_addr_range_64=40
readfile=/home/mkjost/runningtests/gem5/configs/boot/halt.sh
redirect_paths=
release=system.release
reset_addr=0
semihosting=Null
shadow_rom_ranges=
shared_backstore=
sme_vl=1
sve_vl=1
symbolfile=
thermal_components=
thermal_model=Null
work_begin_ckpt_count=0
work_begin_cpu_id_exit=-1
work_begin_exit_count=0
work_cpus_ckpt_count=0
work_end_ckpt_count=0
work_end_exit_count=0
work_item_id=-1
workload=system.workload
system_port=system.membus.cpu_side_ports[0]

[system.bridge]
type=Bridge
children=power_state
clk_domain=system.clk_domain
delay=50000
eventq_index=0
power_model=
power_state=system.bridge.power_state
ranges=201326592:536870912 1073741824:2147483648 274877906944:549755813888
req_size=16
resp_size=16
cpu_side_port=system.membus.mem_side_ports[0]
mem_side_port=system.iobus.cpu_side_ports[0]

[system.bridge.power_state]
type=PowerState
clk_gate_bins=20
clk_gate_max=1000000000000
clk_gate_min=1000
default_state=UNDEFINED
eventq_index=0
leaders=
possible_states=

[system.clk_domain]
type=SrcClockDomain
clock=1000
domain_id=-1
eventq_index=0
init_perf_level=0
voltage_domain=system.voltage_domain

[system.cpu0]
type=BaseAtomicSimpleCPU
children=dcache decoder icache interrupts isa mmu power_state tracer
branchPred=Null
checker=Null
clk_domain=system.cpu_clk_domain
cpu_id=0
decoder=system.cpu0.decoder
do_checkpoint_insts=true
do_statistics_insts=true
eventq_index=0
function_trace=false
function_trace_start=0
interrupts=system.cpu0.interrupts
isa=system.cpu0.isa
max_insts_all_threads=0
max_insts_any_thread=0
mmu=system.cpu0.mmu
numThreads=1
power_gating_on_idle=false
power_model=
power_state=system.cpu0.power_state
progress_interval=0
pwr_gating_latency=300
simpoint_start_insts=
simulate_data_stalls=false
simulate_inst_stalls=false
socket_id=0
switched_out=false
syscallRetryLatency=10000
system=system
tracer=system.cpu0.tracer
width=1
workload=
dcache_port=system.cpu0.dcache.cpu_side
icache_port=system.cpu0.icache.cpu_side

[system.cpu0.dcache]
type=Cache
children=power_state replacement_policy tags
addr_ranges=0:18446744073709551615
assoc=4
clk_domain=system.cpu_clk_domain
clusivity=mostly_incl
compressor=Null
data_latency=2
demand_mshr_reserve=1
eventq_index=0
is_read_only=false
max_miss_count=0
move_contractions=true
mshrs=4
power_model=
power_state=system.cpu0.dcache.power_state
prefetch_on_access=false
prefetch_on_pf_hit=false
prefetcher=Null
replace_expansions=true
replacement_policy=system.cpu0.dcache.replacement_policy
response_latency=2
sequential_access=false
size=32768
system=system
tag_latency=2
tags=system.cpu0.dcache.tags
tgts_per_mshr=20
warmup_percentage=0
write_allocator=Null
write_buffers=8
writeback_clean=false
cpu_side=system.cpu0.dcache_port
mem_side=system.toL2Bus.cpu_side_ports[1]

[system.cpu0.dcache.power_state]
type=PowerState
clk_gate_bins=20
clk_gate_max=1000000000000
clk_gate_min=1000
default_state=UNDEFINED
eventq_index=0
leaders=
possible_states=

[system.cpu0.dcache.replacement_policy]
type=LRURP
eventq_index=0

[system.cpu0.dcache.tags]
type=BaseSetAssoc
children=indexing_policy power_state
assoc=4
block_size=64
clk_domain=system.cpu_clk_domain
entry_size=64
eventq_index=0
indexing_policy=system.cpu0.dcache.tags.indexing_policy
power_model=
power_state=system.cpu0.dcache.tags.power_state
replacement_policy=system.cpu0.dcache.replacement_policy
sequential_access=false
size=32768
system=system
tag_latency=2
warmup_percentage=0

[system.cpu0.dcache.tags.indexing_policy]
type=SetAssociative
assoc=4
entry_size=64
eventq_index=0
size=32768

[system.cpu0.dcache.tags.power_state]
type=PowerState
clk_gate_bins=20
clk_gate_max=1000000000000
clk_gate_min=1000
default_state=UNDEFINED
eventq_index=0
leaders=
possible_states=

[system.cpu0.decoder]
type=ArmDecoder
dvm_enabled=false
eventq_index=0
isa=system.cpu0.isa

[system.cpu0.icache]
type=Cache
children=power_state replacement_policy tags
addr_ranges=0:18446744073709551615
assoc=1
clk_domain=system.cpu_clk_domain
clusivity=mostly_incl
compressor=Null
data_latency=2
demand_mshr_reserve=1
eventq_index=0
is_read_only=true
max_miss_count=0
move_contractions=true
mshrs=4
power_model=
power_state=system.cpu0.icache.power_state
prefetch_on_access=false
prefetch_on_pf_hit=false
prefetcher=Null
replace_expansions=true
replacement_policy=system.cpu0.icache.replacement_policy
response_latency=2
sequential_access=false
size=32768
system=system
tag_latency=2
tags=system.cpu0.icache.tags
tgts_per_mshr=20
warmup_percentage=0
write_allocator=Null
write_buffers=8
writeback_clean=true
cpu_side=system.cpu0.icache_port
mem_side=system.toL2Bus.cpu_side_ports[0]

[system.cpu0.icache.power_state]
type=PowerState
clk_gate_bins=20
clk_gate_max=1000000000000
clk_gate_min=1000
default_state=UNDEFINED
eventq_index=0
leaders=
possible_states=

[system.cpu0.icache.replacement_policy]
type=LRURP
eventq_index=0

[system.cpu0.icache.tags]
type=BaseSetAssoc
children=indexing_policy power_state
assoc=1
block_size=64
clk_domain=system.cpu_clk_domain
entry_size=64
eventq_index=0
indexing_policy=system.cpu0.icache.tags.indexing_policy
power_model=
power_state=system.cpu0.icache.tags.power_state
replacement_policy=system.cpu0.icache.replacement_policy
sequential_access=false
size=32768
system=system
tag_latency=2
warmup_percentage=0

[system.cpu0.icache.tags.indexing_policy]
type=SetAssociative
assoc=1
entry_size=64
eventq_index=0
size=32768

[system.cpu0.icache.tags.power_state]
type=PowerState
clk_gate_bins=20
clk_gate_max=1000000000000
clk_gate_min=1000
default_state=UNDEFINED
eventq_index=0
leaders=
possible_states=

[system.cpu0.interrupts]
type=ArmInterrupts
eventq_index=0

[system.cpu0.isa]
type=ArmISA
children=release_se
decoderFlavor=Generic
eventq_index=0
fpsid=1090793632
id_aa64afr0_el1=0
id_aa64afr1_el1=0
id_aa64dfr0_el1=15790086
id_aa64dfr1_el1=0
id_aa64isar0_el1=268435456
id_aa64isar1_el1=16846864
id_aa64mmfr0_el1=15728642
id_aa64mmfr1_el1=1052704
id_aa64mmfr2_el1=65552
id_isar0=34607377
id_isar1=34677009
id_isar2=555950401
id_isar3=17899825
id_isar4=268501314
id_isar5=285212672
id_isar6=1
id_mmfr0=270536963
id_mmfr1=0
id_mmfr2=19070976
id_mmfr3=34611729
id_mmfr4=0
impdef_nop=false
midr=0
pmu=Null
release_se=system.cpu0.isa.release_se
sme_vl_se=1
sve_vl_se=1
system=system

[system.cpu0.isa.release_se]
type=ArmRelease
eventq_index=0
extensions=CRYPTO FEAT_LSE FEAT_RDM FEAT_SVE FEAT_FCMA FEAT_JSCVT FEAT_PAuth FEAT_SME TME

[system.cpu0.mmu]
type=ArmMMU
children=dtb dtb_walker itb itb_walker l2_shared stage2_dtb stage2_dtb_walker stage2_itb stage2_itb_walker
dtb=system.cpu0.mmu.dtb
dtb_walker=system.cpu0.mmu.dtb_walker
eventq_index=0
itb=system.cpu0.mmu.itb
itb_walker=system.cpu0.mmu.itb_walker
release_se=system.cpu0.isa.release_se
stage2_dtb=system.cpu0.mmu.stage2_dtb
stage2_dtb_walker=system.cpu0.mmu.stage2_dtb_walker
stage2_itb=system.cpu0.mmu.stage2_itb
stage2_itb_walker=system.cpu0.mmu.stage2_itb_walker
sys=system

[system.cpu0.mmu.dtb]
type=ArmTLB
entry_type=data
eventq_index=0
is_stage2=false
next_level=system.cpu0.mmu.l2_shared
partial_levels=
size=64
sys=system

[system.cpu0.mmu.dtb_walker]
type=ArmTableWalker
children=power_state
clk_domain=system.cpu_clk_domain
eventq_index=0
is_stage2=false
num_squash_per_cycle=2
power_model=
power_state=system.cpu0.mmu.dtb_walker.power_state
sys=system
port=system.toL2Bus.cpu_side_ports[3]

[system.cpu0.mmu.dtb_walker.power_state]
type=PowerState
clk_gate_bins=20
clk_gate_max=1000000000000
clk_gate_min=1000
default_state=UNDEFINED
eventq_index=0
leaders=
possible_states=

[system.cpu0.mmu.itb]
type=ArmTLB
entry_type=instruction
eventq_index=0
is_stage2=false
next_level=system.cpu0.mmu.l2_shared
partial_levels=
size=64
sys=system

[system.cpu0.mmu.itb_walker]
type=ArmTableWalker
children=power_state
clk_domain=system.cpu_clk_domain
eventq_index=0
is_stage2=false
num_squash_per_cycle=2
power_model=
power_state=system.cpu0.mmu.itb_walker.power_state
sys=system
port=system.toL2Bus.cpu_side_ports[2]

[system.cpu0.mmu.itb_walker.power_state]
type=PowerState
clk_gate_bins=20
clk_gate_max=1000000000000
clk_gate_min=1000
default_state=UNDEFINED
eventq_index=0
leaders=
possible_states=

[system.cpu0.mmu.l2_shared]
type=ArmTLB
entry_type=unified
eventq_index=0
is_stage2=false
next_level=Null
partial_levels=L2
size=1280
sys=system

[system.cpu0.mmu.stage2_dtb]
type=ArmTLB
entry_type=data
eventq_index=0
is_stage2=true
next_level=Null
partial_levels=
size=32
sys=system

[system.cpu0.mmu.stage2_dtb_walker]
type=ArmTableWalker
children=power_state
clk_domain=system.cpu_clk_domain
eventq_index=0
is_stage2=true
num_squash_per_cycle=2
power_model=
power_state=system.cpu0.mmu.stage2_dtb_walker.power_state
sys=system
port=system.toL2Bus.cpu_side_ports[5]

[system.cpu0.mmu.stage2_dtb_walker.power_state]
type=PowerState
clk_gate_bins=20
clk_gate_max=1000000000000
clk_gate_min=1000
default_state=UNDEFINED
eventq_index=0
leaders=
possible_states=

[system.cpu0.mmu.stage2_itb]
type=ArmTLB
entry_type=instruction
eventq_index=0
is_stage2=true
next_level=Null
partial_levels=
size=32
sys=system

[system.cpu0.mmu.stage2_itb_walker]
type=ArmTableWalker
children=power_state
clk_domain=system.cpu_clk_domain
eventq_index=0
is_stage2=true
num_squash_per_cycle=2
power_model=
power_state=system.cpu0.mmu.stage2_itb_walker.power_state
sys=system
port=system.toL2Bus.cpu_side_ports[4]

[system.cpu0.mmu.stage2_itb_walker.power_state]
type=PowerState
clk_gate_bins=20
clk_gate_max=1000000000000
clk_gate_min=1000
default_state=UNDEFINED
eventq_index=0
leaders=
possible_states=

[system.cpu0.power_state]
type=PowerState
clk_gate_bins=20
clk_gate_max=1000000000000
clk_gate_min=1000
default_state=UNDEFINED
eventq_index=0
leaders=
possible_states=ON CLK_GATED OFF

[system.cpu0.tracer]
type=ExeTracer
eventq_index=0

[system.cpu1]
type=BaseAtomicSimpleCPU
children=decoder isa mmu power_state tracer
branchPred=Null
checker=Null
clk_domain=system.cpu_clk_domain
cpu_id=0
decoder=system.cpu1.decoder
do_checkpoint_insts=true
do_statistics_insts=true
eventq_index=0
function_trace=false
function_trace_start=0
interrupts=
isa=system.cpu1.isa
max_insts_all_threads=0
max_insts_any_thread=0
mmu=system.cpu1.mmu
numThreads=1
power_gating_on_idle=false
power_model=
power_state=system.cpu1.power_state
progress_interval=0
pwr_gating_latency=300
simpoint_start_insts=
simulate_data_stalls=false
simulate_inst_stalls=false
socket_id=0
switched_out=true
syscallRetryLatency=10000
system=system
tracer=system.cpu1.tracer
width=1
workload=

[system.cpu1.decoder]
type=ArmDecoder
dvm_enabled=false
eventq_index=0
isa=system.cpu1.isa

[system.cpu1.isa]
type=ArmISA
children=release_se
decoderFlavor=Generic
eventq_index=0
fpsid=1090793632
id_aa64afr0_el1=0
id_aa64afr1_el1=0
id_aa64dfr0_el1=15790086
id_aa64dfr1_el1=0
id_aa64isar0_el1=268435456
id_aa64isar1_el1=16846864
id_aa64mmfr0_el1=15728642
id_aa64mmfr1_el1=1052704
id_aa64mmfr2_el1=65552
id_isar0=34607377
id_isar1=34677009
id_isar2=555950401
id_isar3=17899825
id_isar4=268501314
id_isar5=285212672
id_isar6=1
id_mmfr0=270536963
id_mmfr1=0
id_mmfr2=19070976
id_mmfr3=34611729
id_mmfr4=0
impdef_nop=false
midr=0
pmu=Null
release_se=system.cpu1.isa.release_se
sme_vl_se=1
sve_vl_se=1
system=system

[system.cpu1.isa.release_se]
type=ArmRelease
eventq_index=0
extensions=CRYPTO FEAT_LSE FEAT_RDM FEAT_SVE FEAT_FCMA FEAT_JSCVT FEAT_PAuth FEAT_SME TME

[system.cpu1.mmu]
type=ArmMMU
children=dtb dtb_walker itb itb_walker l2_shared stage2_dtb stage2_dtb_walker stage2_itb stage2_itb_walker
dtb=system.cpu1.mmu.dtb
dtb_walker=system.cpu1.mmu.dtb_walker
eventq_index=0
itb=system.cpu1.mmu.itb
itb_walker=system.cpu1.mmu.itb_walker
release_se=system.cpu1.isa.release_se
stage2_dtb=system.cpu1.mmu.stage2_dtb
stage2_dtb_walker=system.cpu1.mmu.stage2_dtb_walker
stage2_itb=system.cpu1.mmu.stage2_itb
stage2_itb_walker=system.cpu1.mmu.stage2_itb_walker
sys=system

[system.cpu1.mmu.dtb]
type=ArmTLB
entry_type=data
eventq_index=0
is_stage2=false
next_level=system.cpu1.mmu.l2_shared
partial_levels=
size=64
sys=system

[system.cpu1.mmu.dtb_walker]
type=ArmTableWalker
children=power_state
clk_domain=system.cpu_clk_domain
eventq_index=0
is_stage2=false
num_squash_per_cycle=2
power_model=
power_state=system.cpu1.mmu.dtb_walker.power_state
sys=system

[system.cpu1.mmu.dtb_walker.power_state]
type=PowerState
clk_gate_bins=20
clk_gate_max=1000000000000
clk_gate_min=1000
default_state=UNDEFINED
eventq_index=0
leaders=
possible_states=

[system.cpu1.mmu.itb]
type=ArmTLB
entry_type=instruction
eventq_index=0
is_stage2=false
next_level=system.cpu1.mmu.l2_shared
partial_levels=
size=64
sys=system

[system.cpu1.mmu.itb_walker]
type=ArmTableWalker
children=power_state
clk_domain=system.cpu_clk_domain
eventq_index=0
is_stage2=false
num_squash_per_cycle=2
power_model=
power_state=system.cpu1.mmu.itb_walker.power_state
sys=system

[system.cpu1.mmu.itb_walker.power_state]
type=PowerState
clk_gate_bins=20
clk_gate_max=1000000000000
clk_gate_min=1000
default_state=UNDEFINED
eventq_index=0
leaders=
possible_states=

[system.cpu1.mmu.l2_shared]
type=ArmTLB
entry_type=unified
eventq_index=0
is_stage2=false
next_level=Null
partial_levels=L2
size=1280
sys=system

[system.cpu1.mmu.stage2_dtb]
type=ArmTLB
entry_type=data
eventq_index=0
is_stage2=true
next_level=Null
partial_levels=
size=32
sys=system

[system.cpu1.mmu.stage2_dtb_walker]
type=ArmTableWalker
children=power_state
clk_domain=system.cpu_clk_domain
eventq_index=0
is_stage2=true
num_squash_per_cycle=2
power_model=
power_state=system.cpu1.mmu.stage2_dtb_walker.power_state
sys=system

[system.cpu1.mmu.stage2_dtb_walker.power_state]
type=PowerState
clk_gate_bins=20
clk_gate_max=1000000000000
clk_gate_min=1000
default_state=UNDEFINED
eventq_index=0
leaders=
possible_states=

[system.cpu1.mmu.stage2_itb]
type=ArmTLB
entry_type=instruction
eventq_index=0
is_stage2=true
next_level=Null
partial_levels=
size=32
sys=system

[system.cpu1.mmu.stage2_itb_walker]
type=ArmTableWalker
children=power_state
clk_domain=system.cpu_clk_domain
eventq_index=0
is_stage2=true
num_squash_per_cycle=2
power_model=
power_state=system.cpu1.mmu.stage2_itb_walker.power_state
sys=system

[system.cpu1.mmu.stage2_itb_walker.power_state]
type=PowerState
clk_gate_bins=20
clk_gate_max=1000000000000
clk_gate_min=1000
default_state=UNDEFINED
eventq_index=0
leaders=
possible_states=

[system.cpu1.power_state]
type=PowerState
clk_gate_bins=20
clk_gate_max=1000000000000
clk_gate_min=1000
default_state=UNDEFINED
eventq_index=0
leaders=
possible_states=ON CLK_GATED OFF

[system.cpu1.tracer]
type=ExeTracer
eventq_index=0

[system.cpu_clk_domain]
type=SrcClockDomain
clock=500
domain_id=-1
eventq_index=0
init_perf_level=0
voltage_domain=system.voltage_domain

[system.dvfs_handler]
type=DVFSHandler
domains=
enable=false
eventq_index=0
sys_clk_domain=system.clk_domain
transition_latency=100000000

[system.iobus]
type=NoncoherentXBar
children=power_state
clk_domain=system.clk_domain
eventq_index=0
forward_latency=1
frontend_latency=2
header_latency=1
power_model=
power_state=system.iobus.power_state
response_latency=2
use_default_range=false
width=16
cpu_side_ports=system.bridge.mem_side_port system.realview.clcd.dma system.pci_ide.dma
mem_side_ports=system.realview.flash1.port system.realview.vram.port system.realview.realview_io.pio system.realview.kmi0.pio system.realview.kmi1.pio system.realview.watchdog.pio system.realview.rtc.pio system.realview.pci_host.pio system.realview.energy_ctrl.pio system.realview.pwr_ctrl.pio system.realview.vio0.pio system.realview.vio1.pio system.realview.uart0.pio system.realview.uart1.pio system.realview.uart2.pio system.realview.uart3.pio system.realview.clcd.pio system.realview.sp810_fake.pio system.pci_ide.pio system.iocache.cpu_side

[system.iobus.power_state]
type=PowerState
clk_gate_bins=20
clk_gate_max=1000000000000
clk_gate_min=1000
default_state=UNDEFINED
eventq_index=0
leaders=
possible_states=

[system.iocache]
type=Cache
children=power_state replacement_policy tags
addr_ranges=2147483648:2415919104
assoc=8
clk_domain=system.clk_domain
clusivity=mostly_incl
compressor=Null
data_latency=50
demand_mshr_reserve=1
eventq_index=0
is_read_only=false
max_miss_count=0
move_contractions=true
mshrs=20
power_model=
power_state=system.iocache.power_state
prefetch_on_access=false
prefetch_on_pf_hit=false
prefetcher=Null
replace_expansions=true
replacement_policy=system.iocache.replacement_policy
response_latency=50
sequential_access=false
size=1024
system=system
tag_latency=50
tags=system.iocache.tags
tgts_per_mshr=12
warmup_percentage=0
write_allocator=Null
write_buffers=8
writeback_clean=false
cpu_side=system.iobus.mem_side_ports[19]
mem_side=system.membus.cpu_side_ports[2]

[system.iocache.power_state]
type=PowerState
clk_gate_bins=20
clk_gate_max=1000000000000
clk_gate_min=1000
default_state=UNDEFINED
eventq_index=0
leaders=
possible_states=

[system.iocache.replacement_policy]
type=LRURP
eventq_index=0

[system.iocache.tags]
type=BaseSetAssoc
children=indexing_policy power_state
assoc=8
block_size=64
clk_domain=system.clk_domain
entry_size=64
eventq_index=0
indexing_policy=system.iocache.tags.indexing_policy
power_model=
power_state=system.iocache.tags.power_state
replacement_policy=system.iocache.replacement_policy
sequential_access=false
size=1024
system=system
tag_latency=50
warmup_percentage=0

[system.iocache.tags.indexing_policy]
type=SetAssociative
assoc=8
entry_size=64
eventq_index=0
size=1024

[system.iocache.tags.power_state]
type=PowerState
clk_gate_bins=20
clk_gate_max=1000000000000
clk_gate_min=1000
default_state=UNDEFINED
eventq_index=0
leaders=
possible_states=

[system.l2c]
type=Cache
children=power_state replacement_policy tags
addr_ranges=0:18446744073709551615
assoc=8
clk_domain=system.cpu_clk_domain
clusivity=mostly_incl
compressor=Null
data_latency=20
demand_mshr_reserve=1
eventq_index=0
is_read_only=false
max_miss_count=0
move_contractions=true
mshrs=20
power_model=
power_state=system.l2c.power_state
prefetch_on_access=false
prefetch_on_pf_hit=false
prefetcher=Null
replace_expansions=true
replacement_policy=system.l2c.replacement_policy
response_latency=20
sequential_access=false
size=4194304
system=system
tag_latency=20
tags=system.l2c.tags
tgts_per_mshr=12
warmup_percentage=0
write_allocator=Null
write_buffers=8
writeback_clean=false
cpu_side=system.toL2Bus.mem_side_ports[0]
mem_side=system.membus.cpu_side_ports[1]

[system.l2c.power_state]
type=PowerState
clk_gate_bins=20
clk_gate_max=1000000000000
clk_gate_min=1000
default_state=UNDEFINED
eventq_index=0
leaders=
possible_states=

[system.l2c.replacement_policy]
type=LRURP
eventq_index=0

[system.l2c.tags]
type=BaseSetAssoc
children=indexing_policy power_state
assoc=8
block_size=64
clk_domain=system.cpu_clk_domain
entry_size=64
eventq_index=0
indexing_policy=system.l2c.tags.indexing_policy
power_model=
power_state=system.l2c.tags.power_state
replacement_policy=system.l2c.replacement_policy
sequential_access=false
size=4194304
system=system
tag_latency=20
warmup_percentage=0

[system.l2c.tags.indexing_policy]
type=SetAssociative
assoc=8
entry_size=64
eventq_index=0
size=4194304

[system.l2c.tags.power_state]
type=PowerState
clk_gate_bins=20
clk_gate_max=1000000000000
clk_gate_min=1000
default_state=UNDEFINED
eventq_index=0
leaders=
possible_states=

[system.membus]
type=CoherentXBar
children=badaddr_responder power_state snoop_filter
clk_domain=system.clk_domain
eventq_index=0
forward_latency=4
frontend_latency=3
header_latency=1
max_outstanding_snoops=512
max_routing_table_size=512
point_of_coherency=true
point_of_unification=true
power_model=
power_state=system.membus.power_state
response_latency=2
snoop_filter=system.membus.snoop_filter
snoop_response_latency=4
system=system
use_default_range=false
width=16
cpu_side_ports=system.system_port system.l2c.mem_side system.iocache.mem_side
default=system.membus.badaddr_responder.pio
mem_side_ports=system.bridge.cpu_side_port system.realview.bootmem.port system.realview.trusted_sram.port system.realview.trusted_dram.port system.realview.non_trusted_sram.port system.realview.flash0.port system.realview.generic_timer_mem.pio system.realview.el2_watchdog.pio system.realview.trusted_watchdog.pio system.realview.system_watchdog.pio system.realview.generic_timer_mem.frames0.pio system.realview.generic_timer_mem.frames1.pio system.realview.gic.pio system.physmem.port

[system.membus.badaddr_responder]
type=IsaFake
children=power_state
clk_domain=system.clk_domain
eventq_index=0
fake_mem=false
pio_addr=0
pio_latency=100000
pio_size=8
power_model=
power_state=system.membus.badaddr_responder.power_state
ret_bad_addr=true
ret_data16=65535
ret_data32=4294967295
ret_data64=18446744073709551615
ret_data8=255
system=system
update_data=false
warn_access=warn
pio=system.membus.default

[system.membus.badaddr_responder.power_state]
type=PowerState
clk_gate_bins=20
clk_gate_max=1000000000000
clk_gate_min=1000
default_state=UNDEFINED
eventq_index=0
leaders=
possible_states=

[system.membus.power_state]
type=PowerState
clk_gate_bins=20
clk_gate_max=1000000000000
clk_gate_min=1000
default_state=UNDEFINED
eventq_index=0
leaders=
possible_states=

[system.membus.snoop_filter]
type=SnoopFilter
eventq_index=0
lookup_latency=1
max_capacity=8388608
system=system

[system.pci_ide]
type=IdeController
children=BAR0 BAR1 BAR2 BAR3 BAR4 BAR5 disks power_state
BAR0=system.pci_ide.BAR0
BAR1=system.pci_ide.BAR1
BAR2=system.pci_ide.BAR2
BAR3=system.pci_ide.BAR3
BAR4=system.pci_ide.BAR4
BAR5=system.pci_ide.BAR5
BIST=0
CacheLineSize=0
CapabilityPtr=0
CardbusCIS=0
ClassCode=1
Command=0
DeviceID=28945
ExpansionROM=0
HeaderType=0
InterruptLine=31
InterruptPin=1
LatencyTimer=0
MSICAPBaseOffset=0
MSICAPCapId=0
MSICAPMaskBits=0
MSICAPMsgAddr=0
MSICAPMsgCtrl=0
MSICAPMsgData=0
MSICAPMsgUpperAddr=0
MSICAPNextCapability=0
MSICAPPendingBits=0
MSIXCAPBaseOffset=0
MSIXCAPCapId=0
MSIXCAPNextCapability=0
MSIXMsgCtrl=0
MSIXPbaOffset=0
MSIXTableOffset=0
MaximumLatency=0
MinimumGrant=0
PMCAPBaseOffset=0
PMCAPCapId=0
PMCAPCapabilities=0
PMCAPCtrlStatus=0
PMCAPNextCapability=0
PXCAPBaseOffset=0
PXCAPCapId=0
PXCAPCapabilities=0
PXCAPDevCap2=0
PXCAPDevCapabilities=0
PXCAPDevCtrl=0
PXCAPDevCtrl2=0
PXCAPDevStatus=0
PXCAPLinkCap=0
PXCAPLinkCtrl=0
PXCAPLinkStatus=0
PXCAPNextCapability=0
ProgIF=133
Revision=0
Status=640
SubClassCode=1
SubsystemID=0
SubsystemVendorID=0
VendorID=32902
clk_domain=system.clk_domain
config_latency=20000
ctrl_offset=0
disks=system.pci_ide.disks
eventq_index=0
host=system.realview.pci_host
io_shift=0
pci_bus=0
pci_dev=1
pci_func=0
pio_latency=30000
power_model=
power_state=system.pci_ide.power_state
sid=0
ssid=0
system=system
dma=system.iobus.cpu_side_ports[2]
pio=system.iobus.mem_side_ports[18]

[system.pci_ide.BAR0]
type=PciIoBar
eventq_index=0
size=8

[system.pci_ide.BAR1]
type=PciIoBar
eventq_index=0
size=4

[system.pci_ide.BAR2]
type=PciIoBar
eventq_index=0
size=8

[system.pci_ide.BAR3]
type=PciIoBar
eventq_index=0
size=4

[system.pci_ide.BAR4]
type=PciIoBar
eventq_index=0
size=16

[system.pci_ide.BAR5]
type=PciBarNone
eventq_index=0

[system.pci_ide.disks]
type=IdeDisk
children=image
delay=1000000
driveID=device0
eventq_index=0
image=system.pci_ide.disks.image

[system.pci_ide.disks.image]
type=CowDiskImage
children=child
child=system.pci_ide.disks.image.child
eventq_index=0
image_file=
read_only=false
table_size=65536

[system.pci_ide.disks.image.child]
type=RawDiskImage
eventq_index=0
image_file=/home/mkjost/runningtests/gem5/tests/gem5/resources/arm/disks/m5_exit.squashfs.arm64
read_only=true

[system.pci_ide.power_state]
type=PowerState
clk_gate_bins=20
clk_gate_max=1000000000000
clk_gate_min=1000
default_state=UNDEFINED
eventq_index=0
leaders=
possible_states=

[system.physmem]
type=SimpleMemory
children=power_state
bandwidth=73.000000
clk_domain=system.clk_domain
conf_table_reported=true
eventq_index=0
image_file=
in_addr_map=true
kvm_map=true
latency=30000
latency_var=0
null=false
power_model=
power_state=system.physmem.power_state
range=2147483648:2415919104
port=system.membus.mem_side_ports[13]

[system.physmem.power_state]
type=PowerState
clk_gate_bins=20
clk_gate_max=1000000000000
clk_gate_min=1000
default_state=UNDEFINED
eventq_index=0
leaders=
possible_states=

[system.realview]
type=RealView
children=bootmem clcd clock24MHz clock32KHz dcc el2_watchdog energy_ctrl flash0 flash1 generic_timer generic_timer_mem gic io_voltage kmi0 kmi1 mcc non_trusted_sram pci_host pwr_ctrl realview_io rtc sp810_fake sys_counter system_watchdog trusted_dram trusted_sram trusted_watchdog uart0 uart1 uart2 uart3 vio0 vio1 vram watchdog
eventq_index=0
system=system

[system.realview.bootmem]
type=SimpleMemory
children=power_state
bandwidth=73.000000
clk_domain=system.clk_domain
conf_table_reported=false
eventq_index=0
image_file=
in_addr_map=true
kvm_map=true
latency=30000
latency_var=0
null=false
power_model=
power_state=system.realview.bootmem.power_state
range=0:67108864
port=system.membus.mem_side_ports[1]

[system.realview.bootmem.power_state]
type=PowerState
clk_gate_bins=20
clk_gate_max=1000000000000
clk_gate_min=1000
default_state=UNDEFINED
eventq_index=0
leaders=
possible_states=

[system.realview.clcd]
type=Pl111
children=interrupt power_state
amba_id=1315089
clk_domain=system.clk_domain
enable_capture=true
eventq_index=0
interrupt=system.realview.clcd.interrupt
pio_addr=471793664
pio_latency=10000
pixel_clock=41667
power_model=
power_state=system.realview.clcd.power_state
sid=0
ssid=0
system=system
vnc=system.vncserver
dma=system.iobus.cpu_side_ports[1]
pio=system.iobus.mem_side_ports[16]

[system.realview.clcd.interrupt]
type=ArmSPI
eventq_index=0
int_type=IRQ_TYPE_LEVEL_HIGH
num=46
platform=system.realview

[system.realview.clcd.power_state]
type=PowerState
clk_gate_bins=20
clk_gate_max=1000000000000
clk_gate_min=1000
default_state=UNDEFINED
eventq_index=0
leaders=
possible_states=

[system.realview.clock24MHz]
type=SrcClockDomain
clock=41667
domain_id=-1
eventq_index=0
init_perf_level=0
voltage_domain=system.realview.io_voltage

[system.realview.clock32KHz]
type=SrcClockDomain
clock=31250000
domain_id=-1
eventq_index=0
init_perf_level=0
voltage_domain=system.realview.io_voltage

[system.realview.dcc]
type=SubSystem
children=osc_cpu osc_ddr osc_hsbm osc_pxl osc_smb osc_sys
eventq_index=0
thermal_domain=Null

[system.realview.dcc.osc_cpu]
type=RealViewOsc
dcc=0
device=0
eventq_index=0
freq=16667
max_freq=16667
min_freq=50000
parent=system.realview.realview_io
position=0
site=1
voltage_domain=system.voltage_domain

[system.realview.dcc.osc_ddr]
type=RealViewOsc
dcc=0
device=8
eventq_index=0
freq=25000
max_freq=0
min_freq=0
parent=system.realview.realview_io
position=0
site=1
voltage_domain=system.voltage_domain

[system.realview.dcc.osc_hsbm]
type=RealViewOsc
dcc=0
device=4
eventq_index=0
freq=25000
max_freq=25000
min_freq=50000
parent=system.realview.realview_io
position=0
site=1
voltage_domain=system.voltage_domain

[system.realview.dcc.osc_pxl]
type=RealViewOsc
dcc=0
device=5
eventq_index=0
freq=42105
max_freq=6061
min_freq=42088
parent=system.realview.realview_io
position=0
site=1
voltage_domain=system.voltage_domain

[system.realview.dcc.osc_smb]
type=RealViewOsc
dcc=0
device=6
eventq_index=0
freq=20000
max_freq=20000
min_freq=50000
parent=system.realview.realview_io
position=0
site=1
voltage_domain=system.voltage_domain

[system.realview.dcc.osc_sys]
type=RealViewOsc
dcc=0
device=7
eventq_index=0
freq=16667
max_freq=16667
min_freq=50000
parent=system.realview.realview_io
position=0
site=1
voltage_domain=system.voltage_domain

[system.realview.el2_watchdog]
type=GenericWatchdog
children=power_state ws0 ws1
clk_domain=system.clk_domain
control_start=709099520
eventq_index=0
pio_latency=10000
power_model=
power_state=system.realview.el2_watchdog.power_state
refresh_start=709165056
system=system
system_counter=system.realview.sys_counter
ws0=system.realview.el2_watchdog.ws0
ws1=system.realview.el2_watchdog.ws1
pio=system.membus.mem_side_ports[7]

[system.realview.el2_watchdog.power_state]
type=PowerState
clk_gate_bins=20
clk_gate_max=1000000000000
clk_gate_min=1000
default_state=UNDEFINED
eventq_index=0
leaders=
possible_states=

[system.realview.el2_watchdog.ws0]
type=ArmSPI
eventq_index=0
int_type=IRQ_TYPE_LEVEL_HIGH
num=59
platform=system.realview

[system.realview.el2_watchdog.ws1]
type=ArmSPI
eventq_index=0
int_type=IRQ_TYPE_LEVEL_HIGH
num=60
platform=system.realview

[system.realview.energy_ctrl]
type=EnergyCtrl
children=power_state
clk_domain=system.clk_domain
dvfs_handler=system.dvfs_handler
eventq_index=0
pio_addr=268435456
pio_latency=100000
power_model=
power_state=system.realview.energy_ctrl.power_state
system=system
pio=system.iobus.mem_side_ports[8]

[system.realview.energy_ctrl.power_state]
type=PowerState
clk_gate_bins=20
clk_gate_max=1000000000000
clk_gate_min=1000
default_state=UNDEFINED
eventq_index=0
leaders=
possible_states=

[system.realview.flash0]
type=SimpleMemory
children=power_state
bandwidth=73.000000
clk_domain=system.clk_domain
conf_table_reported=false
eventq_index=0
image_file=
in_addr_map=true
kvm_map=true
latency=30000